/*--------------------------------*- C++ -*----------------------------------*\
| =========                 |                                                 |
| \\      /  F ield         | OpenFOAM: The Open Source CFD Toolbox           |
|  \\    /   O peration     | Version:  v2306                                 |
|   \\  /    A nd           | Website:  www.openfoam.com                      |
|    \\/     M anipulation  |                                                 |
\*---------------------------------------------------------------------------*/
FoamFile
{
    version     2.0;
    format      ascii;
    class       dictionary;
    object      controlDict;
}
// * * * * * * * * * * * * * * * * * * * * * * * * * * * * * * * * * * * * * //

application     simpleFoam;

startFrom       startTime;

startTime       0;

stopAt          endTime;

endTime         1000;

deltaT          1;

writeControl    timeStep;

writeInterval   25;

purgeWrite      0;

writeFormat     ascii;

writePrecision  6;

writeCompression off;

timeFormat      general;

timePrecision   6;

runTimeModifiable true;

functions
{
    momErr
    {
        type            momentumError;
        libs            (fieldFunctionObjects);
        executeControl  writeTime;
        writeControl    writeTime;
    }

    contErr
    {
        type            div;
        libs            (fieldFunctionObjects);
        field           phi;
        executeControl  writeTime;
        writeControl    writeTime;
    }


    turbulenceFields1
    {
        type            turbulenceFields;
        libs            (fieldFunctionObjects);
        fields
        (
            k
            epsilon
            nut
            nuEff
            R
            devReff
            L
            I
        );

        executeControl  writeTime;
        writeControl    writeTime;
    }

    mag1
    {
        type            mag;
        libs            (fieldFunctionObjects);
        field           turbulenceProperties:R;

        result          magR;
        executeControl  writeTime;
        writeControl    writeTime;
    }
    forces
    {
        type            forceCoeffs;
        libs            ("libforces.so");
        writeControl    writeTime;

        patches
        (
            walls
        );

        rho         rhoInf;
        rhoInf      1;

        CofR        (0 0 0);
        liftDir     (-0.13918 0.99026 0);
        dragDir     (0.99026 0.13917 0);
        pitchAxis   (0 0 1);
        magUInf     26;
        lRef        1;
        Aref        1;

        result      forces;
        executeControl      writeTime;
    }

}


// ************************************************************************* //
